6514
  -OEChem-07202609573D

 12 11  0     0  0  0  0  0  0999 V2000
   -3.0075   -0.2465    0.0076 S   0  0  0  0  0  0  0  0  0  0  0  0
    2.1169   -0.9093   -0.0024 O   0  0  0  0  0  0  0  0  0  0  0  0
    1.3511    1.2285    0.0029 O   0  0  0  0  0  0  0  0  0  0  0  0
   -0.2518   -0.5792   -0.0028 C   0  0  0  0  0  0  0  0  0  0  0  0
   -1.3420    0.4832   -0.0118 C   0  0  0  0  0  0  0  0  0  0  0  0
    1.1332    0.0234    0.0065 C   0  0  0  0  0  0  0  0  0  0  0  0
   -0.3438   -1.2080    0.8905 H   0  0  0  0  0  0  0  0  0  0  0  0
   -0.3329   -1.2107   -0.8951 H   0  0  0  0  0  0  0  0  0  0  0  0
   -1.2545    1.1153   -0.9020 H   0  0  0  0  0  0  0  0  0  0  0  0
   -1.2475    1.1363    0.8624 H   0  0  0  0  0  0  0  0  0  0  0  0
   -2.9014   -0.9043   -1.1564 H   0  0  0  0  0  0  0  0  0  0  0  0
    3.0089   -0.5011   -0.0059 H   0  0  0  0  0  0  0  0  0  0  0  0
  1  5  1  0  0  0  0
  1 11  1  0  0  0  0
  2  6  1  0  0  0  0
  2 12  1  0  0  0  0
  3  6  2  0  0  0  0
  4  5  1  0  0  0  0
  4  6  1  0  0  0  0
  4  7  1  0  0  0  0
  4  8  1  0  0  0  0
  5  9  1  0  0  0  0
  5 10  1  0  0  0  0
M  END
